Version 4
SHEET 1 880 680
WIRE -656 -112 -704 -112
WIRE -560 -112 -560 -128
WIRE -560 -112 -592 -112
WIRE -528 -112 -560 -112
WIRE -432 -112 -464 -112
WIRE -352 -112 -432 -112
WIRE -224 -112 -288 -112
WIRE -704 -80 -704 -112
WIRE -1504 -64 -1504 -96
WIRE -1392 -64 -1392 -96
WIRE -432 -48 -432 -112
WIRE -384 -48 -432 -48
WIRE -224 -32 -224 -112
WIRE -224 -32 -320 -32
WIRE -208 -32 -224 -32
WIRE -384 -16 -432 -16
WIRE -336 16 -336 0
WIRE -1504 48 -1504 16
WIRE -1392 48 -1392 16
WIRE -704 64 -704 0
WIRE -432 64 -432 -16
FLAG -1504 48 0
FLAG -1392 48 0
FLAG -1504 -96 V+
FLAG -1392 -96 V-
FLAG -208 -32 Vout
FLAG -560 -128 Vin
FLAG -352 0 V-
FLAG -352 -64 V+
FLAG -704 64 0
FLAG -432 64 0
SYMBOL voltage -1504 -80 R0
WINDOW 123 24 126 Left 2
WINDOW 39 24 111 Left 2
SYMATTR InstName V1
SYMATTR Value +12
SYMBOL voltage -1392 -80 R0
WINDOW 123 24 126 Left 2
WINDOW 39 24 111 Left 2
SYMATTR InstName V2
SYMATTR Value -12
SYMBOL Opamps/UniversalOpamp2 -352 -32 R0
WINDOW 0 16 -32 Invisible 2
SYMATTR InstName U1
SYMBOL res2 -464 -128 R90
WINDOW 0 0 32 VBottom 2
WINDOW 3 28 32 Invisible 2
SYMATTR InstName R1
SYMATTR Value 8.1k
SYMBOL res2 -288 -128 R90
WINDOW 0 0 32 VBottom 2
WINDOW 3 28 32 Invisible 2
SYMATTR InstName Rf
SYMATTR Value 67.9k
SYMBOL voltage -704 -96 R0
WINDOW 3 -389 310 Left 2
WINDOW 39 0 0 Left 0
SYMATTR Value SINE(0 2 1k 0 0 0 200)
SYMATTR Value2 AC 1 0
SYMATTR InstName Vg
SYMBOL res2 -592 -128 R90
WINDOW 0 0 32 VBottom 2
WINDOW 3 28 32 Invisible 2
SYMATTR InstName Rg
SYMATTR Value 600
TEXT -280 280 Left 2 !.tran 20m
