Version 4
SHEET 1 880 680
WIRE -688 -112 -720 -112
WIRE -592 -112 -592 -128
WIRE -592 -112 -608 -112
WIRE -560 -112 -592 -112
WIRE -352 -112 -432 -112
WIRE -224 -112 -288 -112
WIRE -720 -64 -720 -112
WIRE -432 -48 -432 -112
WIRE -384 -48 -432 -48
WIRE -224 -32 -224 -112
WIRE -224 -32 -320 -32
WIRE -208 -32 -224 -32
WIRE -384 -16 -432 -16
WIRE -336 16 -336 0
WIRE -720 32 -720 16
WIRE -432 32 -432 -16
WIRE -1248 48 -1248 16
WIRE -1136 48 -1136 16
WIRE -1248 160 -1248 128
WIRE -1136 160 -1136 128
FLAG -1248 160 0
FLAG -1136 160 0
FLAG -1248 16 V+
FLAG -1136 16 V-
FLAG -432 32 0
FLAG -208 -32 Vout
FLAG -592 -128 Vin
FLAG -352 0 V-
FLAG -352 -64 V+
FLAG -720 32 0
SYMBOL voltage -1248 32 R0
WINDOW 123 24 126 Left 2
WINDOW 39 24 111 Left 2
SYMATTR InstName V1
SYMATTR Value +12
SYMBOL voltage -1136 32 R0
WINDOW 123 24 126 Left 2
WINDOW 39 24 111 Left 2
SYMATTR InstName V2
SYMATTR Value -12
SYMBOL Opamps/UniversalOpamp2 -352 -32 R0
SYMATTR InstName U1
SYMBOL res2 -496 -128 R90
WINDOW 0 0 32 VBottom 2
WINDOW 3 43 46 Invisible 2
SYMATTR InstName R1
SYMATTR Value 8.1k
SYMBOL res2 -288 -128 R90
WINDOW 0 0 32 VBottom 2
WINDOW 3 32 32 Invisible 2
SYMATTR InstName Rf
SYMATTR Value 67.9k
SYMBOL voltage -720 -80 R0
WINDOW 3 -137 295 Left 2
WINDOW 39 0 0 Left 0
SYMATTR Value SINE(0 1 1k 0 0 0 200)
SYMATTR Value2 AC 1 0
SYMATTR InstName VG1
SYMBOL res -592 -128 R90
WINDOW 0 0 56 VBottom 2
WINDOW 3 32 56 Invisible 2
SYMATTR InstName RG
SYMATTR Value 600
SYMBOL cap -432 -128 R90
WINDOW 0 -16 31 VBottom 2
WINDOW 3 32 32 Invisible 2
SYMATTR InstName C1
SYMATTR Value 2.05n
TEXT -480 296 Left 2 !.ac dec 20m 100 100k
