Version 4
SHEET 1 880 680
WIRE -224 -112 -432 -112
WIRE -432 -48 -432 -112
WIRE -384 -48 -432 -48
WIRE -224 -32 -224 -112
WIRE -224 -32 -320 -32
WIRE -112 -32 -144 -32
WIRE -640 -16 -672 -16
WIRE -544 -16 -544 -32
WIRE -544 -16 -560 -16
WIRE -512 -16 -544 -16
WIRE -432 -16 -448 -16
WIRE -384 -16 -432 -16
WIRE -432 16 -432 -16
WIRE -336 16 -336 0
WIRE -144 16 -144 -32
WIRE -672 32 -672 -16
WIRE -1248 48 -1248 16
WIRE -1136 48 -1136 16
WIRE -144 96 -144 80
WIRE -672 128 -672 112
WIRE -432 128 -432 96
WIRE -1248 160 -1248 128
WIRE -1136 160 -1136 128
FLAG -1248 160 0
FLAG -1136 160 0
FLAG -1248 16 V+
FLAG -1136 16 V-
FLAG -112 -32 Vout
FLAG -544 -32 Vin
FLAG -352 0 V-
FLAG -352 -64 V+
FLAG -672 128 0
FLAG -432 128 0
FLAG -144 96 0
SYMBOL voltage -1248 32 R0
WINDOW 123 24 126 Left 2
WINDOW 39 24 111 Left 2
SYMATTR InstName V1
SYMATTR Value +12
SYMBOL voltage -1136 32 R0
WINDOW 123 24 126 Left 2
WINDOW 39 24 111 Left 2
SYMATTR InstName V2
SYMATTR Value -12
SYMBOL Opamps/UniversalOpamp2 -352 -32 R0
SYMATTR InstName U1
SYMBOL voltage -672 16 R0
WINDOW 3 -137 295 Left 2
WINDOW 39 0 0 Left 0
SYMATTR Value SINE(0 1 10 0 0 0 200)
SYMATTR Value2 AC 1 0
SYMATTR InstName VG1
SYMBOL res -544 -32 R90
WINDOW 0 0 56 VBottom 2
WINDOW 3 32 56 Invisible 2
SYMATTR InstName RG
SYMATTR Value 600
SYMBOL res -448 0 R0
SYMATTR InstName R1
SYMATTR Value 100.2k
SYMBOL res -128 -48 R90
WINDOW 0 0 56 VBottom 2
WINDOW 3 32 56 VTop 2
SYMATTR InstName R2
SYMATTR Value 100.1k
SYMBOL cap -160 16 R0
WINDOW 0 32 16 Left 2
SYMATTR InstName C1
SYMATTR Value 0.103n
SYMBOL cap -448 -32 R90
WINDOW 0 0 32 VBottom 2
WINDOW 3 32 32 VTop 2
SYMATTR InstName C2
SYMATTR Value 0.102n
TEXT -480 296 Left 2 !.ac dec 200u 10 200k
